Version 4
SHEET 1 2904 780
WIRE 272 -1136 272 -1152
WIRE 144 -1056 -176 -1056
WIRE 864 -1056 144 -1056
WIRE -176 -1040 -176 -1056
WIRE 272 -1040 272 -1072
WIRE 432 -1040 272 -1040
WIRE 144 -1024 144 -1056
WIRE 272 -1024 272 -1040
WIRE -64 -960 -80 -960
WIRE 32 -960 16 -960
WIRE 432 -960 432 -976
WIRE 432 -960 384 -960
WIRE -176 -944 -176 -960
WIRE 864 -944 864 -1056
WIRE -64 -864 -96 -864
WIRE 16 -864 0 -864
WIRE 32 -864 16 -864
WIRE 816 -864 384 -864
WIRE 432 -848 432 -960
WIRE 16 -816 16 -864
WIRE 16 -816 -144 -816
WIRE -64 -768 -96 -768
WIRE 32 -768 16 -768
WIRE 432 -768 432 -784
WIRE 432 -768 384 -768
WIRE 624 -768 432 -768
WIRE 864 -768 864 -848
WIRE 864 -768 624 -768
WIRE 896 -768 864 -768
WIRE 1008 -768 976 -768
WIRE 1024 -768 1008 -768
WIRE 1120 -768 1104 -768
WIRE 1152 -768 1120 -768
WIRE 1200 -768 1152 -768
WIRE 864 -752 864 -768
WIRE 1200 -752 1200 -768
WIRE -64 -672 -80 -672
WIRE 32 -672 16 -672
WIRE 816 -672 384 -672
WIRE 1200 -672 1200 -688
WIRE 864 -640 864 -656
WIRE -144 -576 -144 -816
WIRE 32 -576 -144 -576
WIRE 1008 -576 1008 -768
WIRE 1008 -576 384 -576
WIRE -64 -480 -96 -480
WIRE 32 -480 0 -480
WIRE 1120 -480 1120 -768
WIRE 1120 -480 384 -480
WIRE 1152 -480 1152 -768
WIRE -64 -384 -96 -384
WIRE 32 -384 0 -384
WIRE 1152 -384 1152 -400
WIRE 1152 -384 384 -384
WIRE 1152 -368 1152 -384
WIRE 208 -304 208 -320
WIRE 1152 -272 1152 -288
WIRE 272 -224 272 -240
WIRE 144 -144 -176 -144
WIRE 864 -144 144 -144
WIRE -176 -128 -176 -144
WIRE 272 -128 272 -160
WIRE 432 -128 272 -128
WIRE 144 -112 144 -144
WIRE 272 -112 272 -128
WIRE -64 -48 -80 -48
WIRE 32 -48 16 -48
WIRE 432 -48 432 -64
WIRE 432 -48 384 -48
WIRE -176 -32 -176 -48
WIRE 864 -32 864 -144
WIRE -64 48 -96 48
WIRE 16 48 0 48
WIRE 32 48 16 48
WIRE 576 48 384 48
WIRE 608 48 576 48
WIRE 704 48 688 48
WIRE 816 48 784 48
WIRE 432 64 432 -48
WIRE 576 64 576 48
WIRE 16 96 16 48
WIRE 16 96 -144 96
WIRE -64 144 -96 144
WIRE 32 144 16 144
WIRE 432 144 432 128
WIRE 432 144 384 144
WIRE 528 144 432 144
WIRE 576 144 576 128
WIRE 576 144 528 144
WIRE 608 144 576 144
WIRE 704 144 688 144
WIRE 864 144 864 64
WIRE 864 144 784 144
WIRE 896 144 864 144
WIRE 1008 144 976 144
WIRE 1024 144 1008 144
WIRE 1120 144 1104 144
WIRE 1152 144 1120 144
WIRE 1200 144 1152 144
WIRE 576 160 576 144
WIRE 864 160 864 144
WIRE 1200 160 1200 144
WIRE -64 240 -80 240
WIRE 32 240 16 240
WIRE 576 240 576 224
WIRE 576 240 384 240
WIRE 608 240 576 240
WIRE 704 240 688 240
WIRE 816 240 784 240
WIRE 1200 240 1200 224
WIRE 864 272 864 256
WIRE -144 336 -144 96
WIRE 32 336 -144 336
WIRE 1008 336 1008 144
WIRE 1008 336 384 336
WIRE -64 432 -96 432
WIRE 32 432 0 432
WIRE 1120 432 1120 144
WIRE 1120 432 384 432
WIRE 1152 432 1152 144
WIRE -64 528 -96 528
WIRE 32 528 0 528
WIRE 1152 528 1152 512
WIRE 1152 528 384 528
WIRE 1152 544 1152 528
WIRE 208 608 208 592
WIRE 1152 640 1152 624
FLAG 208 608 0
FLAG -176 -32 0
FLAG 272 -240 0
FLAG 864 272 0
FLAG 1152 640 0
FLAG 1200 240 0
FLAG -96 432 0
FLAG -96 528 0
FLAG -96 144 0
FLAG -80 -48 0
FLAG -80 240 0
FLAG -96 48 0
FLAG 208 -304 0
FLAG -176 -944 0
FLAG 272 -1152 0
FLAG 864 -640 0
FLAG 1152 -272 0
FLAG 1200 -672 0
FLAG -96 -480 0
FLAG -96 -384 0
FLAG -96 -768 0
FLAG -80 -960 0
FLAG -80 -672 0
FLAG -96 -864 0
FLAG 624 -768 SW_IDEAL
FLAG 528 144 SW_REAL
SYMBOL PowerProducts\\LT3741 208 240 R0
SYMATTR InstName U1
SYMBOL voltage -176 -144 R0
WINDOW 123 0 0 Left 2
WINDOW 39 0 0 Left 2
SYMATTR InstName V1
SYMATTR Value 28
SYMBOL cap 256 -224 R0
SYMATTR InstName C1
SYMATTR Value 10µ
SYMBOL cap 416 64 R0
SYMATTR InstName C2
SYMATTR Value .22µ
SYMBOL schottky 416 -128 R0
SYMATTR InstName D1
SYMATTR Value 1N5819
SYMATTR Description Diode
SYMATTR Type diode
SYMBOL nmos 816 -32 R0
SYMATTR InstName Q1
SYMATTR Value Si7884DP
SYMBOL nmos 816 160 R0
SYMATTR InstName Q2
SYMATTR Value Si7884DP
SYMBOL ind 880 160 R270
WINDOW 0 32 56 VTop 2
WINDOW 3 5 56 VBottom 2
SYMATTR InstName L1
SYMATTR Value 2.2µ
SYMBOL res 1008 160 R270
WINDOW 0 32 56 VTop 2
WINDOW 3 0 56 VBottom 2
SYMATTR InstName R1
SYMATTR Value 2.5m
SYMBOL res 1136 416 R0
SYMATTR InstName R2
SYMATTR Value 180k
SYMBOL res 1136 528 R0
SYMATTR InstName R3
SYMATTR Value 20k
SYMBOL cap 1184 160 R0
SYMATTR InstName C3
SYMATTR Value 300µ
SYMBOL cap 0 512 R90
WINDOW 0 0 32 VBottom 2
WINDOW 3 32 32 VTop 2
WINDOW 39 60 32 VTop 2
SYMATTR InstName C4
SYMATTR Value 5.6n
SYMATTR SpiceLine Rser=39.2K
SYMBOL cap 0 416 R90
WINDOW 0 0 32 VBottom 2
WINDOW 3 32 32 VTop 2
SYMATTR InstName C5
SYMATTR Value .01µ
SYMBOL res 32 128 R90
WINDOW 0 0 56 VBottom 2
WINDOW 3 32 56 VTop 2
SYMATTR InstName R4
SYMATTR Value 82.5K
SYMBOL voltage 32 -48 R90
WINDOW 0 -32 56 VBottom 2
WINDOW 3 32 56 VTop 2
SYMATTR InstName V2
SYMATTR Value 5
SYMBOL voltage 32 240 R90
WINDOW 0 -32 56 VBottom 2
WINDOW 3 32 56 VTop 2
SYMATTR InstName V3
SYMATTR Value 1
SYMBOL cap 0 32 R90
WINDOW 0 0 32 VBottom 2
WINDOW 3 32 32 VTop 2
SYMATTR InstName C6
SYMATTR Value .01µ
SYMBOL ind 688 64 R270
WINDOW 0 32 56 VTop 2
WINDOW 3 5 56 VBottom 2
SYMATTR InstName L2
SYMATTR Value 30n
SYMBOL res 704 32 R90
WINDOW 0 0 56 VBottom 2
WINDOW 3 32 56 VTop 2
SYMATTR InstName R5
SYMATTR Value 50m
SYMBOL res 704 224 R90
WINDOW 0 0 56 VBottom 2
WINDOW 3 32 56 VTop 2
SYMATTR InstName R6
SYMATTR Value 50m
SYMBOL res 704 128 R90
WINDOW 0 0 56 VBottom 2
WINDOW 3 32 56 VTop 2
SYMATTR InstName R7
SYMATTR Value 50m
SYMBOL ind 688 160 R270
WINDOW 0 32 56 VTop 2
WINDOW 3 5 56 VBottom 2
SYMATTR InstName L3
SYMATTR Value 30n
SYMBOL ind 688 256 R270
WINDOW 0 32 56 VTop 2
WINDOW 3 5 56 VBottom 2
SYMATTR InstName L4
SYMATTR Value 30n
SYMBOL PowerProducts\\LT3741 208 -672 R0
SYMATTR InstName U2
SYMBOL voltage -176 -1056 R0
WINDOW 123 0 0 Left 2
WINDOW 39 0 0 Left 2
SYMATTR InstName V4
SYMATTR Value 28
SYMBOL cap 256 -1136 R0
SYMATTR InstName C7
SYMATTR Value 10µ
SYMBOL cap 416 -848 R0
SYMATTR InstName C8
SYMATTR Value .22µ
SYMBOL schottky 416 -1040 R0
SYMATTR InstName D2
SYMATTR Value 1N5819
SYMATTR Description Diode
SYMATTR Type diode
SYMBOL nmos 816 -944 R0
SYMATTR InstName Q3
SYMATTR Value Si7884DP
SYMBOL nmos 816 -752 R0
SYMATTR InstName Q4
SYMATTR Value Si7884DP
SYMBOL ind 880 -752 R270
WINDOW 0 32 56 VTop 2
WINDOW 3 5 56 VBottom 2
SYMATTR InstName L5
SYMATTR Value 2.2µ
SYMBOL res 1008 -752 R270
WINDOW 0 32 56 VTop 2
WINDOW 3 0 56 VBottom 2
SYMATTR InstName R8
SYMATTR Value 2.5m
SYMBOL res 1136 -496 R0
SYMATTR InstName R9
SYMATTR Value 180k
SYMBOL res 1136 -384 R0
SYMATTR InstName R10
SYMATTR Value 20k
SYMBOL cap 1184 -752 R0
SYMATTR InstName C9
SYMATTR Value 300µ
SYMBOL cap 0 -400 R90
WINDOW 0 0 32 VBottom 2
WINDOW 3 32 32 VTop 2
WINDOW 39 60 32 VTop 2
SYMATTR InstName C10
SYMATTR Value 5.6n
SYMATTR SpiceLine Rser=39.2K
SYMBOL cap 0 -496 R90
WINDOW 0 0 32 VBottom 2
WINDOW 3 32 32 VTop 2
SYMATTR InstName C11
SYMATTR Value .01µ
SYMBOL res 32 -784 R90
WINDOW 0 0 56 VBottom 2
WINDOW 3 32 56 VTop 2
SYMATTR InstName R11
SYMATTR Value 82.5K
SYMBOL voltage 32 -960 R90
WINDOW 0 -32 56 VBottom 2
WINDOW 3 32 56 VTop 2
SYMATTR InstName V5
SYMATTR Value 5
SYMBOL voltage 32 -672 R90
WINDOW 0 -32 56 VBottom 2
WINDOW 3 32 56 VTop 2
SYMATTR InstName V6
SYMATTR Value 1
SYMBOL cap 0 -880 R90
WINDOW 0 0 32 VBottom 2
WINDOW 3 32 32 VTop 2
SYMATTR InstName C12
SYMATTR Value .01µ
SYMBOL cap 560 64 R0
SYMATTR InstName C13
SYMATTR Value 33p
SYMBOL cap 560 160 R0
SYMATTR InstName C14
SYMATTR Value 33p
TEXT -96 744 Left 2 !.tran 2.25m startup
