Version 4
SHEET 1 2904 780
WIRE 272 -1136 272 -1152
WIRE 144 -1056 -176 -1056
WIRE 560 -1056 144 -1056
WIRE -176 -1040 -176 -1056
WIRE 272 -1040 272 -1072
WIRE 432 -1040 272 -1040
WIRE 144 -1024 144 -1056
WIRE 272 -1024 272 -1040
WIRE -64 -960 -80 -960
WIRE 32 -960 16 -960
WIRE 432 -960 432 -976
WIRE 432 -960 384 -960
WIRE -176 -944 -176 -960
WIRE 560 -944 560 -1056
WIRE -64 -864 -96 -864
WIRE 16 -864 0 -864
WIRE 32 -864 16 -864
WIRE 512 -864 384 -864
WIRE 432 -848 432 -960
WIRE 16 -816 16 -864
WIRE 16 -816 -144 -816
WIRE -64 -768 -96 -768
WIRE 32 -768 16 -768
WIRE 432 -768 432 -784
WIRE 432 -768 384 -768
WIRE 560 -768 560 -848
WIRE 560 -768 432 -768
WIRE 592 -768 560 -768
WIRE 704 -768 672 -768
WIRE 720 -768 704 -768
WIRE 816 -768 800 -768
WIRE 896 -768 816 -768
WIRE 944 -768 896 -768
WIRE 1040 -768 944 -768
WIRE 560 -752 560 -768
WIRE 944 -752 944 -768
WIRE 1040 -752 1040 -768
WIRE 704 -720 704 -768
WIRE 816 -720 816 -768
WIRE -64 -672 -80 -672
WIRE 32 -672 16 -672
WIRE 512 -672 384 -672
WIRE 944 -672 944 -688
WIRE 560 -640 560 -656
WIRE 704 -608 704 -640
WIRE 720 -608 704 -608
WIRE 816 -608 816 -640
WIRE 816 -608 784 -608
WIRE -144 -576 -144 -816
WIRE 32 -576 -144 -576
WIRE 704 -576 704 -608
WIRE 704 -576 384 -576
WIRE -64 -480 -96 -480
WIRE 32 -480 0 -480
WIRE 816 -480 816 -608
WIRE 816 -480 384 -480
WIRE 896 -480 896 -768
WIRE -64 -384 -96 -384
WIRE 32 -384 0 -384
WIRE 896 -384 896 -400
WIRE 896 -384 384 -384
WIRE 896 -368 896 -384
WIRE 208 -304 208 -320
WIRE 896 -272 896 -288
WIRE 896 -272 768 -272
WIRE 896 -256 896 -272
FLAG 208 -304 0
FLAG -176 -944 0
FLAG 272 -1152 0
FLAG 560 -640 0
FLAG 944 -672 0
FLAG -96 -480 0
FLAG -96 -384 0
FLAG -96 -768 0
FLAG -80 -960 0
FLAG -80 -672 0
FLAG -96 -864 0
FLAG 896 -192 0
FLAG 768 -192 0
FLAG 1040 -672 0
SYMBOL PowerProducts\\LT3741 208 -672 R0
SYMATTR InstName U2
SYMBOL voltage -176 -1056 R0
WINDOW 123 0 0 Left 2
WINDOW 39 0 0 Left 2
SYMATTR InstName V4
SYMATTR Value 28
SYMBOL cap 256 -1136 R0
SYMATTR InstName C7
SYMATTR Value 10µ
SYMBOL cap 416 -848 R0
SYMATTR InstName C8
SYMATTR Value 100n
SYMBOL schottky 416 -1040 R0
SYMATTR InstName D2
SYMATTR Value 1N5819
SYMATTR Description Diode
SYMATTR Type diode
SYMBOL nmos 512 -944 R0
SYMATTR InstName Q3
SYMATTR Value Si7884DP
SYMBOL nmos 512 -752 R0
SYMATTR InstName Q4
SYMATTR Value Si7884DP
SYMBOL ind 576 -752 R270
WINDOW 0 32 56 VTop 2
WINDOW 3 5 56 VBottom 2
SYMATTR InstName L5
SYMATTR Value 22µ
SYMBOL res 704 -752 R270
WINDOW 0 32 56 VTop 2
WINDOW 3 0 56 VBottom 2
SYMATTR InstName R8
SYMATTR Value 10m
SYMBOL res 880 -496 R0
SYMATTR InstName R9
SYMATTR Value 180k
SYMBOL res 880 -384 R0
SYMATTR InstName R10
SYMATTR Value 10k
SYMBOL cap 928 -752 R0
SYMATTR InstName C9
SYMATTR Value 110µ
SYMBOL cap 0 -400 R90
WINDOW 0 0 32 VBottom 2
WINDOW 3 32 32 VTop 2
WINDOW 39 60 32 VTop 2
SYMATTR InstName C10
SYMATTR Value 5.6n
SYMATTR SpiceLine Rser=39.2K
SYMBOL cap 0 -496 R90
WINDOW 0 0 32 VBottom 2
WINDOW 3 32 32 VTop 2
SYMATTR InstName C11
SYMATTR Value .01µ
SYMBOL res 32 -784 R90
WINDOW 0 0 56 VBottom 2
WINDOW 3 32 56 VTop 2
SYMATTR InstName R11
SYMATTR Value 43k
SYMBOL voltage 32 -960 R90
WINDOW 0 -32 56 VBottom 2
WINDOW 3 32 56 VTop 2
SYMATTR InstName V5
SYMATTR Value 5
SYMBOL voltage 32 -672 R90
WINDOW 0 -32 56 VBottom 2
WINDOW 3 32 56 VTop 2
WINDOW 123 0 0 Left 2
WINDOW 39 0 0 Left 2
SYMATTR InstName V6
SYMATTR Value 0.9
SYMBOL cap 0 -880 R90
WINDOW 0 0 32 VBottom 2
WINDOW 3 32 32 VTop 2
SYMATTR InstName C12
SYMATTR Value .01µ
SYMBOL res 688 -736 R0
SYMATTR InstName R2
SYMATTR Value 10
SYMBOL res 800 -736 R0
SYMATTR InstName R3
SYMATTR Value 10
SYMBOL cap 784 -624 R90
WINDOW 0 0 32 VBottom 2
WINDOW 3 32 32 VTop 2
SYMATTR InstName C1
SYMATTR Value 33n
SYMBOL cap 880 -256 R0
SYMATTR InstName C2
SYMATTR Value 3.3µ
SYMBOL voltage 768 -288 R0
WINDOW 123 0 0 Left 2
WINDOW 39 0 0 Left 2
SYMATTR InstName V1
SYMATTR Value 0
SYMBOL res 1024 -768 R0
SYMATTR InstName R1
SYMATTR Value {R}
TEXT -72 -264 Left 2 !.tran 0 5m 3m startup
TEXT 1112 -712 Left 2 !.step dec param R 0.1 1k 2
